2
1

2
9
vout
V
5
vout
V
9
.tran 1m 100m
2
1
vin
V
1
vout
V
